LAMMPS (16 Feb 2016)
# General setup
units metal
boundary p p p
atom_style atomic

# Initial random distribution of 100 atoms
region box block -6.98 6.98 -6.98 6.98 -6.98 6.98
create_box 3 box
Created orthogonal box = (-6.98 -6.98 -6.98) to (6.98 6.98 6.98)
create_atoms 1 random 49 57382 NULL units box # Zr
Created 49 atoms
create_atoms 2 random 49 37971 NULL units box # Cu
Created 49 atoms
create_atoms 3 random 2 84623 NULL units box # Al
Created 2 atoms

# The EAM potential
pair_style eam/alloy
# For all pairs of atom types (* *), reads the EAM potential file
# ZrCuAl.eam.alloy. See more at
# http://lammps.sandia.gov/doc/pair_eam.html
# Note: the masses and the cutoffs are already specified in the EAM
#       potential file.
# Note: the EAM file above is in the DYNAMO multi-element setfl format.
# Note: the elements in the EAM file are mapped to LAMMPS atom types
#       specified with the create_atoms command above by specifying N
#       additional arguments after the filename.
pair_coeff * * ZrCuAl-2011.lammps.eam Zr Cu Al

# Summary of thermodynamic info
thermo 50
thermo_style custom step etotal temp press pe vol density lx ly lz enthalpy

# CG minimization at constant volume
# just to avoid overlapping of atoms
min_style cg # Conjugate gradient
minimize 0.0 1.0e-8 10000 10000
  1 neighbor list requests
  update every 1 steps, delay 0 steps, check yes
Step TotEng Temp Press PotEng Volume Density Lx Ly Lz Enthalpy
0    68089.033            0     52829167    68089.033    2720.5471    4.6618128        13.96        13.96        13.96    157794.65
Loop time of 0.444048 on 96 procs for 866 steps with 100 atoms

Minimization stats:
  Stopping criterion = force tolerance
  Energy initial, next-to-last, final =
  Force two-norm initial, final = 83460.4 9.3393e-09
  Force max component initial, final = 31961.3 1.67384e-09
  Final line search alpha, max atom move = 1 1.67384e-09
  Iterations, force evaluations = 866 1750

# Now trying to reach a liquid in thermal
# equilibrium at 2000 K.
# See more on 03/11/2016-(10).
fix th all npt temp 2000 2000 0.2 iso 0 0 2
# A time step of 2 fs.
timestep 0.002
thermo 5000
run 1000000
  1 neighbor list requests
  update every 1 steps, delay 10 steps, check yes
Step TotEng Temp Press PotEng Volume Density Lx Ly Lz Enthalpy
866   -461.53803            0   -37542.561   -461.53803    2720.5471    4.6618128        13.96        13.96        13.96   -525.28651
Averages over the last 101 of 202 rows, steps 505000 to 1000866:
TotEng Temp Press PotEng Volume Density Lx Ly Lz Enthalpy
-431.822 2007.47 1113.04 -457.511 1928.83 6.57654 12.4477 12.4477 12.4477 -430.628
Loop time of 301.6 on 96 procs for 1000000 steps with 100 atoms

unfix th

#
# Now the quenching at 8.5e9 K/s from 2000 K to 300 K
#
fix thq all npt temp 2000 300 0.2 iso 0 0 2
thermo 50000
run 100000000
Step TotEng Temp Press PotEng Volume Density Lx Ly Lz Enthalpy
1000866   -427.48988    1902.0732    790.67937   -451.83024    1964.4805    6.4559978    12.524178    12.524178    12.524178    -426.5204
Averages over the last 1001 of 2002 rows, steps 51050000 to 101000866:
TotEng Temp Press PotEng Volume Density Lx Ly Lz Enthalpy
-477.677 724.507 331.322 -486.949 1784.08 7.11078 12.1281 12.1281 12.1281 -477.377
Loop time of 30576.2 on 96 procs for 100000000 steps with 100 atoms

unfix thq

#
# Now the second thermalization at 300 K
#
fix th300 all npt temp 300 300 0.2 iso 0 0 2
dump zca-th300 all atom 500 zca-th300.dump
thermo 5000
run 1000000
Step TotEng Temp Press PotEng Volume Density Lx Ly Lz Enthalpy
101000866   -491.57419    281.94729     2112.306    -495.1822    1740.8483    7.2853455    12.029668    12.029668    12.029668   -489.27906
Averages over the last 101 of 202 rows, steps 101505000 to 102000866:
TotEng Temp Press PotEng Volume Density Lx Ly Lz Enthalpy
-491.022 300.889 269.123 -494.872 1745.15 7.26752 12.0395 12.0395 12.0395 -490.753
Loop time of 311.255 on 96 procs for 1000000 steps with 100 atoms

write_restart zca-th300.restart
unfix th300
undump zca-th300
